
data_Ti3O6
_symmetry_space_group_name_H-M P6/mmm
_cell_length_a 7.2617
_cell_length_b 7.2617
_cell_length_c 2.9779
_cell_angle_alpha 90.0000
_cell_angle_beta 90.0000
_cell_angle_gamma 120.0000
_symmetry_Int_Tables_number 191
_chemical_formula_structural TiO2
_chemical_formula_sum 'Ti3 O6'
_cell_volume 136.2396
_cell_formula_units_Z 3
loop_
 _symmetry_equiv_pos_site_id
 _symmetry_equiv_pos_as_xyz
  1 '-x+y, y, -z'
  2 '-x, -x+y, -z'
  3 '-x, -y, -z'
  4 '-x, -y, z'
  5 '-x+y, -x, z'
  6 'x-y, x, z'
  7 '-y, x-y, z'
  8 'x, y, z'
  9 'y, -x+y, z'
  10 '-y, -x, -z'
  11 'x-y, -y, -z'
  12 'x, x-y, -z'
  13 'y, x, -z'
  14 '-x+y, -x, -z'
  15 'y, -x+y, -z'
  16 'x, y, -z'
  17 'x-y, x, -z'
  18 '-y, x-y, -z'
  19 'y, x, z'
  20 '-x+y, y, z'
  21 '-x, -x+y, z'
  22 '-y, -x, z'
  23 'x-y, -y, z'
  24 'x, x-y, z'
loop_
 _atom_site_type_symbol
 _atom_site_label
 _atom_site_symmetry_multiplicity
 _atom_site_fract_x
 _atom_site_fract_y
 _atom_site_fract_z
 _atom_site_occupancy
 Ti Ti0 3 0.0000 0.5000 0.5000 1.0
 O O1 6 0.2252 0.4505 0.5000 1.0
