
data_Ti4O8
_symmetry_space_group_name_H-M Pna2_1
_cell_length_a 5.6034
_cell_length_b 5.7178
_cell_length_c 4.7313
_cell_angle_alpha 90.0000
_cell_angle_beta 90.0000
_cell_angle_gamma 90.0000
_symmetry_Int_Tables_number 33
_chemical_formula_structural TiO2
_chemical_formula_sum 'Ti4 O8'
_cell_volume 151.2682
_cell_formula_units_Z 4
loop_
 _symmetry_equiv_pos_site_id
 _symmetry_equiv_pos_as_xyz
  1 'x+1/2, -y+1/2, z'
  2 '-x, -y, z+1/2'
  3 '-x+1/2, y+1/2, z+1/2'
  4 'x, y, z'
loop_
 _atom_site_type_symbol
 _atom_site_label
 _atom_site_symmetry_multiplicity
 _atom_site_fract_x
 _atom_site_fract_y
 _atom_site_fract_z
 _atom_site_occupancy
 Ti Ti0 4 0.0910 0.1344 0.3124 1.0
 O O1 4 0.0829 0.1241 0.6694 1.0
 O O2 4 0.0920 0.6369 0.6469 1.0
