
data_Ti9O18
_symmetry_space_group_name_H-M R32
_cell_length_a 8.5936
_cell_length_b 8.5936
_cell_length_c 8.0054
_cell_angle_alpha 90.0000
_cell_angle_beta 90.0000
_cell_angle_gamma 120.0000
_symmetry_Int_Tables_number 155
_chemical_formula_structural TiO2
_chemical_formula_sum 'Ti9 O18'
_cell_volume 512.6052
_cell_formula_units_Z 9
loop_
 _symmetry_equiv_pos_site_id
 _symmetry_equiv_pos_as_xyz
  1 '-x+2/3, -x+y+1/3, -z+1/3'
  2 'x-y+2/3, -y+1/3, -z+1/3'
  3 'x+1/3, y+2/3, z+2/3'
  4 'y, x, -z'
  5 '-x, -x+y, -z'
  6 '-y, x-y, z'
  7 '-x+y, -x, z'
  8 'x, y, z'
  9 'x-y, -y, -z'
  10 'x+2/3, y+1/3, z+1/3'
  11 '-y+2/3, x-y+1/3, z+1/3'
  12 '-x+y+2/3, -x+1/3, z+1/3'
  13 'y+2/3, x+1/3, -z+1/3'
  14 '-y+1/3, x-y+2/3, z+2/3'
  15 '-x+y+1/3, -x+2/3, z+2/3'
  16 'y+1/3, x+2/3, -z+2/3'
  17 '-x+1/3, -x+y+2/3, -z+2/3'
  18 'x-y+1/3, -y+2/3, -z+2/3'
loop_
 _atom_site_type_symbol
 _atom_site_label
 _atom_site_symmetry_multiplicity
 _atom_site_fract_x
 _atom_site_fract_y
 _atom_site_fract_z
 _atom_site_occupancy
 Ti Ti0 9 0.0000 0.2071 0.5000 1.0
 O O1 9 0.0000 0.3178 0.0000 1.0
 O O2 9 0.0000 0.7967 0.5000 1.0
