
data_Ti4O8
_symmetry_space_group_name_H-M P4_12_12
_cell_length_a 5.0022
_cell_length_b 5.0022
_cell_length_c 5.7348
_cell_angle_alpha 90.0000
_cell_angle_beta 90.0000
_cell_angle_gamma 90.0000
_symmetry_Int_Tables_number 92
_chemical_formula_structural TiO2
_chemical_formula_sum 'Ti4 O8'
_cell_volume 143.7211
_cell_formula_units_Z 4
loop_
 _symmetry_equiv_pos_site_id
 _symmetry_equiv_pos_as_xyz
  1 'y+1/2, -x+1/2, z+3/4'
  2 'x+1/2, -y+1/2, -z+3/4'
  3 '-y+1/2, x+1/2, z+1/4'
  4 '-x, -y, z+1/2'
  5 'x, y, z'
  6 'y, x, -z'
  7 '-x+1/2, y+1/2, -z+1/4'
  8 '-y, -x, -z+1/2'
loop_
 _atom_site_type_symbol
 _atom_site_label
 _atom_site_symmetry_multiplicity
 _atom_site_fract_x
 _atom_site_fract_y
 _atom_site_fract_z
 _atom_site_occupancy
 Ti Ti0 4 0.1854 0.8146 0.2500 1.0
 O O1 8 0.1556 0.2102 0.7956 1.0
