
data_Ti3O6
_symmetry_space_group_name_H-M P6_422
_cell_length_a 5.7081
_cell_length_b 5.7081
_cell_length_c 5.4156
_cell_angle_alpha 90.0000
_cell_angle_beta 90.0000
_cell_angle_gamma 120.0000
_symmetry_Int_Tables_number 181
_chemical_formula_structural TiO2
_chemical_formula_sum 'Ti3 O6'
_cell_volume 152.5011
_cell_formula_units_Z 3
loop_
 _symmetry_equiv_pos_site_id
 _symmetry_equiv_pos_as_xyz
  1 '-x+y, y, -z'
  2 '-x, -x+y, -z+2/3'
  3 '-x, -y, z'
  4 '-x+y, -x, z+2/3'
  5 'x-y, x, z+2/3'
  6 '-y, x-y, z+1/3'
  7 'x, y, z'
  8 'y, -x+y, z+1/3'
  9 '-y, -x, -z+1/3'
  10 'x-y, -y, -z'
  11 'x, x-y, -z+2/3'
  12 'y, x, -z+1/3'
loop_
 _atom_site_type_symbol
 _atom_site_label
 _atom_site_symmetry_multiplicity
 _atom_site_fract_x
 _atom_site_fract_y
 _atom_site_fract_z
 _atom_site_occupancy
 Ti Ti0 3 0.0000 0.5000 0.3333 1.0
 O O1 6 0.2017 0.7983 0.5000 1.0
