
data_Ti9O18
_symmetry_space_group_name_H-M R-3m
_cell_length_a 5.4195
_cell_length_b 5.4195
_cell_length_c 13.6915
_cell_angle_alpha 90.0000
_cell_angle_beta 90.0000
_cell_angle_gamma 120.0000
_symmetry_Int_Tables_number 166
_chemical_formula_structural TiO2
_chemical_formula_sum 'Ti9 O18'
_cell_volume 348.1755
_cell_formula_units_Z 9
loop_
 _symmetry_equiv_pos_site_id
 _symmetry_equiv_pos_as_xyz
  1 '-x+y+1/3, y+2/3, z+2/3'
  2 'x, x-y, z'
  3 '-x+y, y, z'
  4 'x+2/3, y+1/3, z+1/3'
  5 'y, x, -z'
  6 '-x, -x+y, -z'
  7 '-y, x-y, z'
  8 '-x+y, -x, z'
  9 'x, y, z'
  10 'x-y, -y, -z'
  11 '-x, -y, -z'
  12 '-x+1/3, -y+2/3, -z+2/3'
  13 'y+1/3, -x+y+2/3, -z+2/3'
  14 'x-y+1/3, x+2/3, -z+2/3'
  15 'y, -x+y, -z'
  16 'x-y, x, -z'
  17 '-y, -x, z'
  18 '-y+2/3, x-y+1/3, z+1/3'
  19 '-x+y+2/3, -x+1/3, z+1/3'
  20 'y+2/3, x+1/3, -z+1/3'
  21 '-x+2/3, -x+y+1/3, -z+1/3'
  22 'x-y+2/3, -y+1/3, -z+1/3'
  23 '-x+2/3, -y+1/3, -z+1/3'
  24 'y+2/3, -x+y+1/3, -z+1/3'
  25 '-y+1/3, -x+2/3, z+2/3'
  26 'x+1/3, x-y+2/3, z+2/3'
  27 'x-y+2/3, x+1/3, -z+1/3'
  28 '-y+2/3, -x+1/3, z+1/3'
  29 'x+2/3, x-y+1/3, z+1/3'
  30 '-x+y+2/3, y+1/3, z+1/3'
  31 'x+1/3, y+2/3, z+2/3'
  32 '-y+1/3, x-y+2/3, z+2/3'
  33 '-x+y+1/3, -x+2/3, z+2/3'
  34 'y+1/3, x+2/3, -z+2/3'
  35 '-x+1/3, -x+y+2/3, -z+2/3'
  36 'x-y+1/3, -y+2/3, -z+2/3'
loop_
 _atom_site_type_symbol
 _atom_site_label
 _atom_site_symmetry_multiplicity
 _atom_site_fract_x
 _atom_site_fract_y
 _atom_site_fract_z
 _atom_site_occupancy
 Ti Ti0 6 0.0000 0.0000 0.2197 1.0
 Ti Ti1 3 0.0000 0.0000 0.0000 1.0
 O O2 18 0.0041 0.5021 0.6004 1.0
