
data_Ti6O12
_symmetry_space_group_name_H-M P-1
_cell_length_a 4.8260
_cell_length_b 5.4485
_cell_length_c 7.5325
_cell_angle_alpha 81.0487
_cell_angle_beta 89.3365
_cell_angle_gamma 89.9865
_symmetry_Int_Tables_number 2
_chemical_formula_structural TiO2
_chemical_formula_sum 'Ti6 O12'
_cell_volume 195.8064
_cell_formula_units_Z 6
loop_
 _symmetry_equiv_pos_site_id
 _symmetry_equiv_pos_as_xyz
  1 '-x, -y, -z'
  2 'x, y, z'
loop_
 _atom_site_type_symbol
 _atom_site_label
 _atom_site_symmetry_multiplicity
 _atom_site_fract_x
 _atom_site_fract_y
 _atom_site_fract_z
 _atom_site_occupancy
 Ti Ti0 2 0.0119 0.1702 0.3309 1.0
 Ti Ti1 2 0.4804 0.3283 0.6664 1.0
 Ti Ti2 1 0.0000 0.5000 0.0000 1.0
 Ti Ti3 1 0.5000 0.0000 0.0000 1.0
 O O4 2 0.1792 0.4602 0.2313 1.0
 O O5 2 0.1986 0.1589 0.5422 1.0
 O O6 2 0.2035 0.9685 0.1387 1.0
 O O7 2 0.2891 0.3120 0.8889 1.0
 O O8 2 0.3100 0.6475 0.5431 1.0
 O O9 2 0.3231 0.7947 0.8074 1.0
