
data_Ti6O12
_symmetry_space_group_name_H-M P-1
_cell_length_a 4.8809
_cell_length_b 5.6132
_cell_length_c 7.5742
_cell_angle_alpha 89.1731
_cell_angle_beta 89.8401
_cell_angle_gamma 89.8174
_symmetry_Int_Tables_number 2
_chemical_formula_structural TiO2
_chemical_formula_sum 'Ti6 O12'
_cell_volume 208.3786
_cell_formula_units_Z 6
loop_
 _symmetry_equiv_pos_site_id
 _symmetry_equiv_pos_as_xyz
  1 '-x, -y, -z'
  2 'x, y, z'
loop_
 _atom_site_type_symbol
 _atom_site_label
 _atom_site_symmetry_multiplicity
 _atom_site_fract_x
 _atom_site_fract_y
 _atom_site_fract_z
 _atom_site_occupancy
 Ti Ti0 2 0.0187 0.3415 0.3356 1.0
 Ti Ti1 2 0.4797 0.8445 0.3322 1.0
 Ti Ti2 1 0.0000 0.0000 0.0000 1.0
 Ti Ti3 1 0.5000 0.5000 0.0000 1.0
 O O4 2 0.1757 0.3122 0.5570 1.0
 O O5 2 0.1881 0.6509 0.8962 1.0
 O O6 2 0.2064 0.9632 0.2428 1.0
 O O7 2 0.2911 0.4721 0.2396 1.0
 O O8 2 0.3170 0.8581 0.5687 1.0
 O O9 2 0.3191 0.1467 0.9082 1.0
