
data_Ti6O12
_symmetry_space_group_name_H-M C2/m
_cell_length_a 5.2392
_cell_length_b 8.9314
_cell_length_c 4.6976
_cell_angle_alpha 90.0000
_cell_angle_beta 117.6070
_cell_angle_gamma 90.0000
_symmetry_Int_Tables_number 12
_chemical_formula_structural TiO2
_chemical_formula_sum 'Ti6 O12'
_cell_volume 195.1920
_cell_formula_units_Z 6
loop_
 _symmetry_equiv_pos_site_id
 _symmetry_equiv_pos_as_xyz
  1 'x, -y, z'
  2 'x+1/2, y+1/2, z'
  3 '-x, y, -z'
  4 '-x, -y, -z'
  5 'x, y, z'
  6 '-x+1/2, y+1/2, -z'
  7 '-x+1/2, -y+1/2, -z'
  8 'x+1/2, -y+1/2, z'
loop_
 _atom_site_type_symbol
 _atom_site_label
 _atom_site_symmetry_multiplicity
 _atom_site_fract_x
 _atom_site_fract_y
 _atom_site_fract_z
 _atom_site_occupancy
 Ti Ti0 4 0.0000 0.3238 0.0000 1.0
 Ti Ti1 2 0.0000 0.0000 0.0000 1.0
 O O2 8 0.2292 0.1533 0.2293 1.0
 O O3 4 0.2291 0.5000 0.2160 1.0
