
data_Ti4O8
_symmetry_space_group_name_H-M Pbcm
_cell_length_a 5.1249
_cell_length_b 4.9418
_cell_length_c 5.1387
_cell_angle_alpha 90.0000
_cell_angle_beta 90.0000
_cell_angle_gamma 90.0000
_symmetry_Int_Tables_number 57
_chemical_formula_structural TiO2
_chemical_formula_sum 'Ti4 O8'
_cell_volume 130.4107
_cell_formula_units_Z 4
loop_
 _symmetry_equiv_pos_site_id
 _symmetry_equiv_pos_as_xyz
  1 '-x, y+1/2, -z+1/2'
  2 '-x, -y, -z'
  3 '-x, -y, z+1/2'
  4 'x, -y+1/2, -z'
  5 'x, y, z'
  6 'x, y, -z-1/2'
  7 '-x, y-1/2, z'
  8 'x, -y-1/2, z-1/2'
loop_
 _atom_site_type_symbol
 _atom_site_label
 _atom_site_symmetry_multiplicity
 _atom_site_fract_x
 _atom_site_fract_y
 _atom_site_fract_z
 _atom_site_occupancy
 Ti Ti0 4 0.2311 0.5302 0.7500 1.0
 O O1 4 0.1170 0.6149 0.2500 1.0
 O O2 4 0.4026 0.2500 0.0000 1.0
