
data_Ti4O8
_symmetry_space_group_name_H-M C2/m
_cell_length_a 6.3850
_cell_length_b 2.9641
_cell_length_c 5.9942
_cell_angle_alpha 90.0000
_cell_angle_beta 95.9950
_cell_angle_gamma 90.0000
_symmetry_Int_Tables_number 12
_chemical_formula_structural TiO2
_chemical_formula_sum 'Ti4 O8'
_cell_volume 113.7315
_cell_formula_units_Z 4
loop_
 _symmetry_equiv_pos_site_id
 _symmetry_equiv_pos_as_xyz
  1 'x, -y, z'
  2 'x+1/2, y+1/2, z'
  3 '-x, y, -z'
  4 '-x, -y, -z'
  5 'x, y, z'
  6 '-x+1/2, y+1/2, -z'
  7 '-x+1/2, -y+1/2, -z'
  8 'x+1/2, -y+1/2, z'
loop_
 _atom_site_type_symbol
 _atom_site_label
 _atom_site_symmetry_multiplicity
 _atom_site_fract_x
 _atom_site_fract_y
 _atom_site_fract_z
 _atom_site_occupancy
 Ti Ti0 4 0.2006 0.5000 0.7249 1.0
 O O1 4 0.0892 0.0000 0.8491 1.0
 O O2 4 0.1457 0.5000 0.3894 1.0
