
data_Ti8O16
_symmetry_space_group_name_H-M Imma
_cell_length_a 5.8836
_cell_length_b 6.0142
_cell_length_c 6.6355
_cell_angle_alpha 90.0000
_cell_angle_beta 90.0000
_cell_angle_gamma 90.0000
_symmetry_Int_Tables_number 74
_chemical_formula_structural TiO2
_chemical_formula_sum 'Ti8 O16'
_cell_volume 235.3379
_cell_formula_units_Z 8
loop_
 _symmetry_equiv_pos_site_id
 _symmetry_equiv_pos_as_xyz
  1 'x+1/2, -y+1/2, -z+1/2'
  2 '-x+1/2, y+1, -z+1/2'
  3 '-x+1/2, -y+1/2, -z+1/2'
  4 '-x, y+1/2, -z'
  5 '-x, -y, -z'
  6 '-x, -y+1/2, z'
  7 'x, -y, -z'
  8 'x, y, z'
  9 'x, y-1/2, -z'
  10 '-x, y, z'
  11 'x, -y-1/2, z'
  12 'x+1/2, y+1/2, z+1/2'
  13 '-x+1/2, -y+1, z+1/2'
  14 'x+1/2, y, -z+1/2'
  15 '-x+1/2, y+1/2, z+1/2'
  16 'x+1/2, -y, z+1/2'
loop_
 _atom_site_type_symbol
 _atom_site_label
 _atom_site_symmetry_multiplicity
 _atom_site_fract_x
 _atom_site_fract_y
 _atom_site_fract_z
 _atom_site_occupancy
 Ti Ti0 4 0.0000 0.2500 0.2329 1.0
 Ti Ti1 4 0.2500 0.2500 0.7500 1.0
 O O2 8 0.0000 0.0325 0.7727 1.0
 O O3 8 0.2322 0.2500 0.4540 1.0
