
data_Ti6O12
_symmetry_space_group_name_H-M P-1
_cell_length_a 4.8532
_cell_length_b 5.6082
_cell_length_c 7.5139
_cell_angle_alpha 76.3219
_cell_angle_beta 89.1146
_cell_angle_gamma 89.5954
_symmetry_Int_Tables_number 2
_chemical_formula_structural TiO2
_chemical_formula_sum 'Ti6 O12'
_cell_volume 198.8891
_cell_formula_units_Z 6
loop_
 _symmetry_equiv_pos_site_id
 _symmetry_equiv_pos_as_xyz
  1 '-x, -y, -z'
  2 'x, y, z'
loop_
 _atom_site_type_symbol
 _atom_site_label
 _atom_site_symmetry_multiplicity
 _atom_site_fract_x
 _atom_site_fract_y
 _atom_site_fract_z
 _atom_site_occupancy
 Ti Ti0 2 0.0152 0.3455 0.3239 1.0
 Ti Ti1 2 0.4789 0.1567 0.6565 1.0
 Ti Ti2 1 0.0000 0.0000 0.0000 1.0
 Ti Ti3 1 0.5000 0.5000 0.0000 1.0
 O O4 2 0.1527 0.3027 0.8793 1.0
 O O5 2 0.1827 0.0445 0.2180 1.0
 O O6 2 0.2070 0.3641 0.5232 1.0
 O O7 2 0.2867 0.7981 0.5339 1.0
 O O8 2 0.3192 0.5352 0.2180 1.0
 O O9 2 0.3236 0.8461 0.8771 1.0
