
data_Ti5O10
_symmetry_space_group_name_H-M P2/m
_cell_length_a 4.6974
_cell_length_b 10.0766
_cell_length_c 4.7977
_cell_angle_alpha 90.0000
_cell_angle_beta 91.4054
_cell_angle_gamma 90.0000
_symmetry_Int_Tables_number 10
_chemical_formula_structural TiO2
_chemical_formula_sum 'Ti5 O10'
_cell_volume 227.1587
_cell_formula_units_Z 5
loop_
 _symmetry_equiv_pos_site_id
 _symmetry_equiv_pos_as_xyz
  1 'x, -y, z'
  2 '-x, y, -z'
  3 '-x, -y, -z'
  4 'x, y, z'
loop_
 _atom_site_type_symbol
 _atom_site_label
 _atom_site_symmetry_multiplicity
 _atom_site_fract_x
 _atom_site_fract_y
 _atom_site_fract_z
 _atom_site_occupancy
 Ti Ti0 2 0.0000 0.3183 0.5000 1.0
 Ti Ti1 2 0.5000 0.1979 0.0000 1.0
 Ti Ti2 1 0.5000 0.5000 0.0000 1.0
 O O3 4 0.2128 0.1844 0.2935 1.0
 O O4 4 0.3006 0.3193 0.8007 1.0
 O O5 2 0.2428 0.5000 0.3026 1.0
