
data_Ti9O18
_symmetry_space_group_name_H-M R3m
_cell_length_a 3.1841
_cell_length_b 3.1841
_cell_length_c 32.0442
_cell_angle_alpha 90.0000
_cell_angle_beta 90.0000
_cell_angle_gamma 120.0000
_symmetry_Int_Tables_number 160
_chemical_formula_structural TiO2
_chemical_formula_sum 'Ti9 O18'
_cell_volume 280.4249
_cell_formula_units_Z 9
loop_
 _symmetry_equiv_pos_site_id
 _symmetry_equiv_pos_as_xyz
  1 'x+2/3, x-y+1/3, z+1/3'
  2 '-x+y+2/3, y+1/3, z+1/3'
  3 'x+1/3, y+2/3, z+2/3'
  4 '-y, -x, z'
  5 'x, x-y, z'
  6 '-y, x-y, z'
  7 '-x+y, -x, z'
  8 'x, y, z'
  9 '-x+y, y, z'
  10 'x+2/3, y+1/3, z+1/3'
  11 '-y+2/3, x-y+1/3, z+1/3'
  12 '-x+y+2/3, -x+1/3, z+1/3'
  13 '-y+2/3, -x+1/3, z+1/3'
  14 '-y+1/3, x-y+2/3, z+2/3'
  15 '-x+y+1/3, -x+2/3, z+2/3'
  16 '-y+1/3, -x+2/3, z+2/3'
  17 'x+1/3, x-y+2/3, z+2/3'
  18 '-x+y+1/3, y+2/3, z+2/3'
loop_
 _atom_site_type_symbol
 _atom_site_label
 _atom_site_symmetry_multiplicity
 _atom_site_fract_x
 _atom_site_fract_y
 _atom_site_fract_z
 _atom_site_occupancy
 Ti Ti0 3 0.0000 0.0000 0.2590 1.0
 Ti Ti1 3 0.0000 0.0000 0.4997 1.0
 Ti Ti2 3 0.0000 0.0000 0.7394 1.0
 O O3 3 0.0000 0.0000 0.0564 1.0
 O O4 3 0.0000 0.0000 0.1912 1.0
 O O5 3 0.0000 0.0000 0.3097 1.0
 O O6 3 0.0000 0.0000 0.4309 1.0
 O O7 3 0.0000 0.0000 0.5680 1.0
 O O8 3 0.0000 0.0000 0.8084 1.0
