
data_Ti6O12
_symmetry_space_group_name_H-M Cm
_cell_length_a 14.2888
_cell_length_b 2.9880
_cell_length_c 4.7323
_cell_angle_alpha 90.0000
_cell_angle_beta 90.3290
_cell_angle_gamma 90.0000
_symmetry_Int_Tables_number 8
_chemical_formula_structural TiO2
_chemical_formula_sum 'Ti6 O12'
_cell_volume 202.9849
_cell_formula_units_Z 6
loop_
 _symmetry_equiv_pos_site_id
 _symmetry_equiv_pos_as_xyz
  1 'x+1/2, -y+1/2, z'
  2 'x, -y, z'
  3 'x+1/2, y+1/2, z'
  4 'x, y, z'
loop_
 _atom_site_type_symbol
 _atom_site_label
 _atom_site_symmetry_multiplicity
 _atom_site_fract_x
 _atom_site_fract_y
 _atom_site_fract_z
 _atom_site_occupancy
 Ti Ti0 2 0.1658 0.5000 0.0529 1.0
 Ti Ti1 2 0.3309 0.0000 0.5540 1.0
 Ti Ti2 2 0.4895 0.5000 0.0115 1.0
 O O3 2 0.0691 0.5000 0.7906 1.0
 O O4 2 0.0819 0.0000 0.2411 1.0
 O O5 2 0.2330 0.5000 0.7060 1.0
 O O6 2 0.2621 0.0000 0.2066 1.0
 O O7 2 0.4107 0.5000 0.7387 1.0
 O O8 2 0.4239 0.0000 0.2362 1.0
