
data_Ti3O6
_symmetry_space_group_name_H-M P1
_cell_length_a 4.9015
_cell_length_b 4.9023
_cell_length_c 5.4367
_cell_angle_alpha 62.9739
_cell_angle_beta 63.4133
_cell_angle_gamma 60.8280
_symmetry_Int_Tables_number 1
_chemical_formula_structural TiO2
_chemical_formula_sum 'Ti3 O6'
_cell_volume 96.1918
_cell_formula_units_Z 3
loop_
 _symmetry_equiv_pos_site_id
 _symmetry_equiv_pos_as_xyz
  1 'x, y, z'
loop_
 _atom_site_type_symbol
 _atom_site_label
 _atom_site_symmetry_multiplicity
 _atom_site_fract_x
 _atom_site_fract_y
 _atom_site_fract_z
 _atom_site_occupancy
 Ti Ti0 1 0.0001 0.9975 0.9941 1.0
 Ti Ti1 1 0.3329 0.3270 0.0400 1.0
 Ti Ti2 1 0.6644 0.6732 0.9702 1.0
 O O3 1 0.0648 0.4189 0.7787 1.0
 O O4 1 0.2701 0.9561 0.2300 1.0
 O O5 1 0.4155 0.7131 0.7544 1.0
 O O6 1 0.5857 0.2616 0.2457 1.0
 O O7 1 0.7183 0.0566 0.7614 1.0
 O O8 1 0.9594 0.5897 0.2191 1.0
