
data_Ti8O16
_symmetry_space_group_name_H-M C2/c
_cell_length_a 11.5056
_cell_length_b 5.0209
_cell_length_c 5.0880
_cell_angle_alpha 90.0000
_cell_angle_beta 116.2041
_cell_angle_gamma 90.0000
_symmetry_Int_Tables_number 15
_chemical_formula_structural TiO2
_chemical_formula_sum 'Ti8 O16'
_cell_volume 261.0590
_cell_formula_units_Z 8
loop_
 _symmetry_equiv_pos_site_id
 _symmetry_equiv_pos_as_xyz
  1 'x, -y, z-1/2'
  2 'x+1/2, y+1/2, z'
  3 '-x, y, -z+1/2'
  4 '-x, -y, -z'
  5 'x, y, z'
  6 '-x+1/2, y+1/2, -z+1/2'
  7 '-x+1/2, -y+1/2, -z'
  8 'x+1/2, -y+1/2, z-1/2'
loop_
 _atom_site_type_symbol
 _atom_site_label
 _atom_site_symmetry_multiplicity
 _atom_site_fract_x
 _atom_site_fract_y
 _atom_site_fract_z
 _atom_site_occupancy
 Ti Ti0 4 0.0000 0.1969 0.7500 1.0
 Ti Ti1 4 0.2500 0.2500 0.5000 1.0
 O O2 8 0.0964 0.0964 0.5385 1.0
 O O3 8 0.1886 0.3998 0.1080 1.0
