
data_Ti10O20
_symmetry_space_group_name_H-M C2
_cell_length_a 13.5469
_cell_length_b 4.6238
_cell_length_c 5.2343
_cell_angle_alpha 90.0000
_cell_angle_beta 93.9115
_cell_angle_gamma 90.0000
_symmetry_Int_Tables_number 5
_chemical_formula_structural TiO2
_chemical_formula_sum 'Ti10 O20'
_cell_volume 328.0459
_cell_formula_units_Z 10
loop_
 _symmetry_equiv_pos_site_id
 _symmetry_equiv_pos_as_xyz
  1 '-x+1/2, y+1/2, -z'
  2 '-x, y, -z'
  3 'x+1/2, y+1/2, z'
  4 'x, y, z'
loop_
 _atom_site_type_symbol
 _atom_site_label
 _atom_site_symmetry_multiplicity
 _atom_site_fract_x
 _atom_site_fract_y
 _atom_site_fract_z
 _atom_site_occupancy
 Ti Ti0 4 0.1465 0.4937 0.5408 1.0
 Ti Ti1 4 0.1494 0.0020 0.0312 1.0
 Ti Ti2 2 0.0000 0.5048 0.0000 1.0
 O O3 4 0.0678 0.2516 0.7980 1.0
 O O4 4 0.1012 0.7480 0.8088 1.0
 O O5 4 0.1031 0.7480 0.2933 1.0
 O O6 4 0.2222 0.2531 0.3556 1.0
 O O7 4 0.2230 0.2482 0.8475 1.0
