
data_Ti6O12
_symmetry_space_group_name_H-M C2
_cell_length_a 5.0371
_cell_length_b 8.7124
_cell_length_c 4.3702
_cell_angle_alpha 90.0000
_cell_angle_beta 90.1537
_cell_angle_gamma 90.0000
_symmetry_Int_Tables_number 5
_chemical_formula_structural TiO2
_chemical_formula_sum 'Ti6 O12'
_cell_volume 192.2475
_cell_formula_units_Z 6
loop_
 _symmetry_equiv_pos_site_id
 _symmetry_equiv_pos_as_xyz
  1 '-x+1/2, y+1/2, -z'
  2 '-x, y, -z'
  3 'x+1/2, y+1/2, z'
  4 'x, y, z'
loop_
 _atom_site_type_symbol
 _atom_site_label
 _atom_site_symmetry_multiplicity
 _atom_site_fract_x
 _atom_site_fract_y
 _atom_site_fract_z
 _atom_site_occupancy
 Ti Ti0 2 0.0000 0.1645 0.5000 1.0
 Ti Ti1 2 0.0000 0.5056 0.0000 1.0
 Ti Ti2 2 0.0000 0.8273 0.0000 1.0
 O O3 4 0.1477 0.6788 0.7621 1.0
 O O4 4 0.1766 0.0083 0.7618 1.0
 O O5 4 0.1810 0.3201 0.7559 1.0
