
data_Ti6O12
_symmetry_space_group_name_H-M P1
_cell_length_a 5.2406
_cell_length_b 5.2581
_cell_length_c 7.4300
_cell_angle_alpha 90.0622
_cell_angle_beta 90.2761
_cell_angle_gamma 90.2882
_symmetry_Int_Tables_number 1
_chemical_formula_structural TiO2
_chemical_formula_sum 'Ti6 O12'
_cell_volume 205.1006
_cell_formula_units_Z 6
loop_
 _symmetry_equiv_pos_site_id
 _symmetry_equiv_pos_as_xyz
  1 'x, y, z'
loop_
 _atom_site_type_symbol
 _atom_site_label
 _atom_site_symmetry_multiplicity
 _atom_site_fract_x
 _atom_site_fract_y
 _atom_site_fract_z
 _atom_site_occupancy
 Ti Ti0 1 0.0123 0.4840 0.5009 1.0
 Ti Ti1 1 0.4817 0.5258 0.1724 1.0
 Ti Ti2 1 0.4851 0.9926 0.5000 1.0
 Ti Ti3 1 0.5156 0.0144 0.9983 1.0
 Ti Ti4 1 0.9885 0.5275 0.9964 1.0
 Ti Ti5 1 0.9913 0.9911 0.2910 1.0
 O O6 1 0.0895 0.5795 0.7477 1.0
 O O7 1 0.1866 0.8165 0.0819 1.0
 O O8 1 0.2006 0.8214 0.4272 1.0
 O O9 1 0.2932 0.3115 0.0463 1.0
 O O10 1 0.3113 0.3046 0.4246 1.0
 O O11 1 0.4107 0.0741 0.7489 1.0
 O O12 1 0.5905 0.9284 0.2525 1.0
 O O13 1 0.6777 0.6874 0.9443 1.0
 O O14 1 0.6956 0.6872 0.5673 1.0
 O O15 1 0.8094 0.1822 0.5637 1.0
 O O16 1 0.8157 0.1854 0.9322 1.0
 O O17 1 0.9205 0.4312 0.2537 1.0
