
data_Ti3O6
_symmetry_space_group_name_H-M P1
_cell_length_a 4.9062
_cell_length_b 4.9089
_cell_length_c 5.4629
_cell_angle_alpha 62.7486
_cell_angle_beta 63.8056
_cell_angle_gamma 60.3935
_symmetry_Int_Tables_number 1
_chemical_formula_structural TiO2
_chemical_formula_sum 'Ti3 O6'
_cell_volume 96.1172
_cell_formula_units_Z 3
loop_
 _symmetry_equiv_pos_site_id
 _symmetry_equiv_pos_as_xyz
  1 'x, y, z'
loop_
 _atom_site_type_symbol
 _atom_site_label
 _atom_site_symmetry_multiplicity
 _atom_site_fract_x
 _atom_site_fract_y
 _atom_site_fract_z
 _atom_site_occupancy
 Ti Ti0 1 0.0001 0.0035 0.9955 1.0
 Ti Ti1 1 0.2528 0.2475 0.2546 1.0
 Ti Ti2 1 0.5009 0.4913 0.5090 1.0
 O O3 1 0.0995 0.3719 0.8082 1.0
 O O4 1 0.2096 0.9053 0.3027 1.0
 O O5 1 0.3913 0.7633 0.7784 1.0
 O O6 1 0.6127 0.2584 0.2763 1.0
 O O7 1 0.7194 0.1641 0.7640 1.0
 O O8 1 0.9408 0.5859 0.2746 1.0
