
data_Ti4O8
_symmetry_space_group_name_H-M Pna2_1
_cell_length_a 5.7264
_cell_length_b 5.4901
_cell_length_c 4.6331
_cell_angle_alpha 90.0000
_cell_angle_beta 90.0000
_cell_angle_gamma 90.0000
_symmetry_Int_Tables_number 33
_chemical_formula_structural TiO2
_chemical_formula_sum 'Ti4 O8'
_cell_volume 146.2077
_cell_formula_units_Z 4
loop_
 _symmetry_equiv_pos_site_id
 _symmetry_equiv_pos_as_xyz
  1 'x+1/2, -y+1/2, z'
  2 '-x, -y, z+1/2'
  3 '-x+1/2, y+1/2, z+1/2'
  4 'x, y, z'
loop_
 _atom_site_type_symbol
 _atom_site_label
 _atom_site_symmetry_multiplicity
 _atom_site_fract_x
 _atom_site_fract_y
 _atom_site_fract_z
 _atom_site_occupancy
 Ti Ti0 4 0.0966 0.8660 0.9799 1.0
 O O1 4 0.0784 0.8659 0.6053 1.0
 O O2 4 0.1446 0.3705 0.6056 1.0
