
data_Ti8O16
_symmetry_space_group_name_H-M Cmc2_1
_cell_length_a 9.9658
_cell_length_b 5.5720
_cell_length_c 5.1229
_cell_angle_alpha 90.0000
_cell_angle_beta 90.0000
_cell_angle_gamma 90.0000
_symmetry_Int_Tables_number 36
_chemical_formula_structural TiO2
_chemical_formula_sum 'Ti8 O16'
_cell_volume 284.3185
_cell_formula_units_Z 8
loop_
 _symmetry_equiv_pos_site_id
 _symmetry_equiv_pos_as_xyz
  1 'x, -y, z+1/2'
  2 'x+1/2, y+1/2, z'
  3 '-x, -y, z+1/2'
  4 '-x, y, z'
  5 'x, y, z'
  6 '-x+1/2, -y+1/2, z+1/2'
  7 '-x+1/2, y+1/2, z'
  8 'x+1/2, -y+1/2, z+1/2'
loop_
 _atom_site_type_symbol
 _atom_site_label
 _atom_site_symmetry_multiplicity
 _atom_site_fract_x
 _atom_site_fract_y
 _atom_site_fract_z
 _atom_site_occupancy
 Ti Ti0 8 0.1519 0.2976 0.2722 1.0
 O O1 8 0.2154 0.3944 0.6230 1.0
 O O2 4 0.0000 0.2746 0.0779 1.0
 O O3 4 0.0000 0.2985 0.4598 1.0
