
data_Ti6O12
_symmetry_space_group_name_H-M P6_3/mmc
_cell_length_a 7.4327
_cell_length_b 7.4327
_cell_length_c 3.6716
_cell_angle_alpha 90.0000
_cell_angle_beta 90.0000
_cell_angle_gamma 120.0000
_symmetry_Int_Tables_number 194
_chemical_formula_structural TiO2
_chemical_formula_sum 'Ti6 O12'
_cell_volume 176.1531
_cell_formula_units_Z 6
loop_
 _symmetry_equiv_pos_site_id
 _symmetry_equiv_pos_as_xyz
  1 '-x+y, y, -z+1/2'
  2 '-x, -x+y, -z'
  3 '-x, -y, -z'
  4 '-x, -y, z+1/2'
  5 '-x+y, -x, z'
  6 'x-y, x, z+1/2'
  7 '-y, x-y, z'
  8 'x, y, z'
  9 'y, -x+y, z+1/2'
  10 '-y, -x, -z+1/2'
  11 'x-y, -y, -z'
  12 'x, x-y, -z+1/2'
  13 'y, x, -z'
  14 '-x+y, -x, -z-1/2'
  15 'y, -x+y, -z'
  16 'x, y, -z-1/2'
  17 'x-y, x, -z'
  18 '-y, x-y, -z-1/2'
  19 'y, x, z-1/2'
  20 '-x+y, y, z'
  21 '-x, -x+y, z-1/2'
  22 '-y, -x, z'
  23 'x-y, -y, z-1/2'
  24 'x, x-y, z'
loop_
 _atom_site_type_symbol
 _atom_site_label
 _atom_site_symmetry_multiplicity
 _atom_site_fract_x
 _atom_site_fract_y
 _atom_site_fract_z
 _atom_site_occupancy
 Ti Ti0 6 0.1850 0.3700 0.2500 1.0
 O O1 6 0.0935 0.5468 0.2500 1.0
 O O2 6 0.1297 0.2594 0.7500 1.0
