
data_Ti9O18
_symmetry_space_group_name_H-M R3
_cell_length_a 5.1054
_cell_length_b 5.1054
_cell_length_c 13.8934
_cell_angle_alpha 90.0000
_cell_angle_beta 90.0000
_cell_angle_gamma 120.0000
_symmetry_Int_Tables_number 146
_chemical_formula_structural TiO2
_chemical_formula_sum 'Ti9 O18'
_cell_volume 312.7800
_cell_formula_units_Z 9
loop_
 _symmetry_equiv_pos_site_id
 _symmetry_equiv_pos_as_xyz
  1 'x+2/3, y+1/3, z+1/3'
  2 '-y+2/3, x-y+1/3, z+1/3'
  3 '-y, x-y, z'
  4 '-x+y, -x, z'
  5 'x, y, z'
  6 '-x+y+2/3, -x+1/3, z+1/3'
  7 'x+1/3, y+2/3, z+2/3'
  8 '-y+1/3, x-y+2/3, z+2/3'
  9 '-x+y+1/3, -x+2/3, z+2/3'
loop_
 _atom_site_type_symbol
 _atom_site_label
 _atom_site_symmetry_multiplicity
 _atom_site_fract_x
 _atom_site_fract_y
 _atom_site_fract_z
 _atom_site_occupancy
 Ti Ti0 3 0.0000 0.0000 0.0117 1.0
 Ti Ti1 3 0.0000 0.0000 0.3522 1.0
 Ti Ti2 3 0.0000 0.0000 0.6428 1.0
 O O3 9 0.0141 0.6450 0.9194 1.0
 O O4 9 0.0488 0.3383 0.0764 1.0
