
data_Ti4O8
_symmetry_space_group_name_H-M Pna2_1
_cell_length_a 5.8199
_cell_length_b 5.7454
_cell_length_c 4.6089
_cell_angle_alpha 90.0000
_cell_angle_beta 90.0000
_cell_angle_gamma 90.0000
_symmetry_Int_Tables_number 33
_chemical_formula_structural TiO2
_chemical_formula_sum 'Ti4 O8'
_cell_volume 154.4924
_cell_formula_units_Z 4
loop_
 _symmetry_equiv_pos_site_id
 _symmetry_equiv_pos_as_xyz
  1 'x+1/2, -y+1/2, z'
  2 '-x, -y, z+1/2'
  3 '-x+1/2, y+1/2, z+1/2'
  4 'x, y, z'
loop_
 _atom_site_type_symbol
 _atom_site_label
 _atom_site_symmetry_multiplicity
 _atom_site_fract_x
 _atom_site_fract_y
 _atom_site_fract_z
 _atom_site_occupancy
 Ti Ti0 4 0.0864 0.8693 0.9817 1.0
 O O1 4 0.0715 0.8708 0.6069 1.0
 O O2 4 0.1016 0.3638 0.6217 1.0
