
data_Ti4O8
_symmetry_space_group_name_H-M P2/c
_cell_length_a 4.6458
_cell_length_b 5.6321
_cell_length_c 4.9904
_cell_angle_alpha 90.0000
_cell_angle_beta 101.1101
_cell_angle_gamma 90.0000
_symmetry_Int_Tables_number 13
_chemical_formula_structural TiO2
_chemical_formula_sum 'Ti4 O8'
_cell_volume 128.3335
_cell_formula_units_Z 4
loop_
 _symmetry_equiv_pos_site_id
 _symmetry_equiv_pos_as_xyz
  1 'x, -y, z-1/2'
  2 '-x, y, -z+1/2'
  3 '-x, -y, -z'
  4 'x, y, z'
loop_
 _atom_site_type_symbol
 _atom_site_label
 _atom_site_symmetry_multiplicity
 _atom_site_fract_x
 _atom_site_fract_y
 _atom_site_fract_z
 _atom_site_occupancy
 Ti Ti0 2 0.0000 0.1320 0.2500 1.0
 Ti Ti1 2 0.5000 0.3746 0.7500 1.0
 O O2 4 0.2280 0.1172 0.9667 1.0
 O O3 4 0.2671 0.3613 0.4340 1.0
