
data_Ti16O32
_symmetry_space_group_name_H-M Fd-3m
_cell_length_a 8.3208
_cell_length_b 8.3208
_cell_length_c 8.3208
_cell_angle_alpha 90.0000
_cell_angle_beta 90.0000
_cell_angle_gamma 90.0000
_symmetry_Int_Tables_number 227
_chemical_formula_structural TiO2
_chemical_formula_sum 'Ti16 O32'
_cell_volume 576.0644
_cell_formula_units_Z 16
loop_
 _symmetry_equiv_pos_site_id
 _symmetry_equiv_pos_as_xyz
  1 '-x-1/2, z, -y-1/2'
  2 '-z+1/4, x+1/4, y+1/4'
  3 '-x, -z, y'
  4 'z+1/4, -x-1/4, y-1/4'
  5 'x-1/2, z, y-1/2'
  6 '-y+1/4, -z+1/4, -x+1/4'
  7 '-y-1/4, z+1/4, x-1/4'
  8 '-z, -x+1/2, y+1/2'
  9 'x+3/4, -z+1/4, y+3/4'
  10 'z, -x, -y'
  11 'y+3/4, -x+1/4, z+3/4'
  12 'x, -y, -z'
  13 '-y+1/4, x+1/4, z+1/4'
  14 '-x, -y+1/2, z+1/2'
  15 'x, y, z'
  16 'y+1/4, x+1/4, -z+1/4'
  17 '-x, y+1/2, -z+1/2'
  18 'x+1/4, -y-1/4, z-1/4'
  19 'y-1/2, x, z-1/2'
  20 '-z+1/4, -x+1/4, -y+1/4'
  21 'z+1/2, y+1/2, x'
  22 'y+3/4, z+3/4, -x+1/4'
  23 '-z+1/2, y, -x-1/2'
  24 'z, -y, -x'
  25 'z+3/4, x-1/4, -y+1/4'
  26 '-x, z, -y'
  27 '-z+3/4, x+1/4, y+3/4'
  28 '-x+1/2, -z, y+1/2'
  29 'z+3/4, -x-1/4, y+1/4'
  30 'x, z, y'
  31 '-y+3/4, -z+1/4, -x+3/4'
  32 '-y+1/4, z+1/4, x+1/4'
  33 '-z+1/2, -y-1/2, x'
  34 'y+1/4, -z-1/4, x+3/4'
  35 'z+3/4, x+1/4, -y-1/4'
  36 '-x, z+1/2, -y-1/2'
  37 '-z+3/4, x+3/4, y+1/4'
  38 '-x+1/2, -z+1/2, y'
  39 'z+3/4, -x+1/4, y-1/4'
  40 'x, z+1/2, y-1/2'
  41 '-y+3/4, -z+3/4, -x+1/4'
  42 '-y+1/4, z+3/4, x-1/4'
  43 '-z+1/2, -y, x-1/2'
  44 'y+1/4, -z+1/4, x+1/4'
  45 '-y-1/2, x, -z-1/2'
  46 '-x+1/4, y+1/4, z+1/4'
  47 '-y, -x, z'
  48 'y+1/4, x+3/4, -z+3/4'
  49 '-x, y+1, -z+1'
  50 '-y+3/4, -x+3/4, -z+5/4'
  51 'z, x+1/2, y+1/2'
  52 '-x+1/4, z+3/4, y+3/4'
  53 '-z, -x+1, y+1'
  54 'x+3/4, -z+3/4, y+5/4'
  55 'z, -x+1/2, -y+1/2'
  56 'x+1/4, z+3/4, -y+3/4'
  57 '-z, x+1, -y+1'
  58 '-x+3/4, -z+3/4, -y+5/4'
  59 'y, z+1/2, x+1/2'
  60 'y+1/2, -z+1/2, -x+1'
  61 'z+1/4, y+5/4, -x+5/4'
  62 '-y+1/2, z+1, -x+1/2'
  63 '-z+1/4, -y+3/4, -x+3/4'
  64 '-y, -z+1/2, x+1/2'
  65 'z+1/4, -y+5/4, x+5/4'
  66 '-z+3/4, y+5/4, x+3/4'
  67 'y, -x+1/2, -z+1/2'
  68 'x+1/4, y+1/4, -z+1/4'
  69 '-y-1/2, x+1/2, -z'
  70 '-x+1/4, y+3/4, z+3/4'
  71 '-x, -y+1, z+1'
  72 'y+3/4, -x+3/4, z+5/4'
  73 'x, -y+1/2, -z+1/2'
  74 'z-1/2, -y-1/2, -x'
  75 'x, y+1/2, z+1/2'
  76 '-y+1/4, x+3/4, z+3/4'
  77 '-z, -y-1/2, x-1/2'
  78 'y-1/4, -z-1/4, x+1/4'
  79 'z, y, x'
  80 'y+1/4, z+1/4, -x+1/4'
  81 'y+5/4, -x+1/4, z+5/4'
  82 'x+1/2, -y, -z+1/2'
  83 'y+3/4, x+1/4, -z+3/4'
  84 '-x+1/2, y+1/2, -z+1'
  85 '-y+5/4, -x+1/4, -z+5/4'
  86 'z+1/2, x, y+1/2'
  87 '-x+3/4, z+1/4, y+3/4'
  88 '-z+1/2, -x+1/2, y+1'
  89 'x+5/4, -z+1/4, y+5/4'
  90 'z+1/2, -x, -y+1/2'
  91 '-x+3/4, -y+3/4, -z+1/4'
  92 'y+1/2, -x+1/2, -z'
  93 'x+3/4, y+1/4, -z-1/4'
  94 '-y, x+1/2, -z-1/2'
  95 '-x+3/4, y+3/4, z+1/4'
  96 '-y+1/2, -x+1/2, z'
  97 'x+3/4, -y+1/4, z-1/4'
  98 'y, x+1/2, z-1/2'
  99 '-z+3/4, -x+3/4, -y+1/4'
  100 'x+1/2, -z+1/2, -y'
  101 '-z+1/2, x+1, -y+1/2'
  102 '-x+5/4, -z+3/4, -y+3/4'
  103 'y+1/2, z+1/2, x'
  104 'y+1, -z+1/2, -x+1/2'
  105 'z+3/4, y+5/4, -x+3/4'
  106 '-y+1, z+1, -x'
  107 '-z+3/4, -y+3/4, -x+1/4'
  108 '-y+1/2, -z+1/2, x'
  109 'z+3/4, -y+5/4, x+3/4'
  110 '-z+5/4, y+5/4, x+1/4'
  111 'z+1/2, y, x+1/2'
  112 'y+3/4, z+1/4, -x+3/4'
  113 '-z+1/2, y-1/2, -x'
  114 'z, -y-1/2, -x+1/2'
  115 'x+1/2, y+1/2, z'
  116 '-y+3/4, x+3/4, z+1/4'
  117 '-x+1/2, -y+1, z+1/2'
  118 'y+5/4, -x+3/4, z+3/4'
  119 '-x+1/4, -y+3/4, -z+3/4'
  120 '-y, -x+1/2, z+1/2'
  121 'x+1/4, -y+1/4, z+1/4'
  122 'y-1/2, x+1/2, z'
  123 '-z+1/4, -x+3/4, -y+3/4'
  124 'x, -z+1/2, -y+1/2'
  125 'z+1/4, x+1/4, -y+1/4'
  126 '-x-1/2, z+1/2, -y'
  127 '-z+1/4, x+3/4, y+3/4'
  128 '-x, -z+1/2, y+1/2'
  129 '-x+3/4, -y+1/4, -z+3/4'
  130 'y+1/2, -x, -z+1/2'
  131 'x+3/4, y-1/4, -z+1/4'
  132 '-y, x, -z'
  133 '-x+3/4, y+1/4, z+3/4'
  134 '-y+1/2, -x, z+1/2'
  135 'x+3/4, -y-1/4, z+1/4'
  136 'y, x, z'
  137 '-z+3/4, -x+1/4, -y+3/4'
  138 'x+1/2, -z, -y+1/2'
  139 'x+1/2, -y+1/2, -z'
  140 'y+3/4, x+3/4, -z+1/4'
  141 '-x+1/2, y+1, -z+1/2'
  142 '-y+5/4, -x+3/4, -z+3/4'
  143 'z+1/2, x+1/2, y'
  144 '-x+3/4, z+3/4, y+1/4'
  145 '-z+1/2, -x+1, y+1/2'
  146 'x+5/4, -z+3/4, y+3/4'
  147 'z+1/2, -x+1/2, -y'
  148 'x+3/4, z+3/4, -y+1/4'
  149 '-z, y-1/2, -x-1/2'
  150 '-y+3/4, -x+1/4, -z+3/4'
  151 'z, x, y'
  152 '-x+1/4, z+1/4, y+1/4'
  153 'x+1/4, z+1/4, -y+1/4'
  154 '-z, x+1/2, -y+1/2'
  155 '-x+3/4, -z+1/4, -y+3/4'
  156 'y, z, x'
  157 'y+1/2, -z, -x+1/2'
  158 'z+1/4, y+3/4, -x+3/4'
  159 'z+1/4, -x+1/4, y+1/4'
  160 'x-1/2, z+1/2, y'
  161 '-y+1/4, -z+3/4, -x+3/4'
  162 '-y+1/2, z+1/2, -x'
  163 'x, -z, -y'
  164 'z+1/4, x-1/4, -y-1/4'
  165 '-z+1/4, -y+1/4, -x+1/4'
  166 '-y, -z, x'
  167 'z+1/4, -y+3/4, x+3/4'
  168 '-z+3/4, y+3/4, x+1/4'
  169 '-x+1/4, -y+1/4, -z+1/4'
  170 'y, -x, -z'
  171 'x+1/4, y-1/4, -z-1/4'
  172 '-y-1/4, z+3/4, x+1/4'
  173 '-z, -y, x'
  174 'y-1/4, -z+1/4, x+3/4'
  175 'z, y+1/2, x+1/2'
  176 'y+1/4, z+3/4, -x+3/4'
  177 '-z, y, -x'
  178 'z-1/2, -y, -x+1/2'
  179 'x+1/2, y, z+1/2'
  180 '-y+3/4, x+1/4, z+3/4'
  181 '-x+1/2, -y+1/2, z+1'
  182 '-z+1/2, x+1/2, -y+1'
  183 '-x+5/4, -z+1/4, -y+5/4'
  184 'y+1/2, z, x+1/2'
  185 'y+1, -z, -x+1'
  186 'z+3/4, y+3/4, -x+5/4'
  187 '-y+1, z+1/2, -x+1/2'
  188 '-z+3/4, -y+1/4, -x+3/4'
  189 '-y+1/2, -z, x+1/2'
  190 'z+3/4, -y+3/4, x+5/4'
  191 '-z+5/4, y+3/4, x+3/4'
  192 'x+3/4, z+1/4, -y+3/4'
loop_
 _atom_site_type_symbol
 _atom_site_label
 _atom_site_symmetry_multiplicity
 _atom_site_fract_x
 _atom_site_fract_y
 _atom_site_fract_z
 _atom_site_occupancy
 Ti Ti0 16 0.1250 0.1250 0.6250 1.0
 O O1 32 0.1126 0.1126 0.3874 1.0
