
data_Ti6O12
_symmetry_space_group_name_H-M P2_1/m
_cell_length_a 4.9547
_cell_length_b 7.4892
_cell_length_c 5.2199
_cell_angle_alpha 90.0000
_cell_angle_beta 93.0836
_cell_angle_gamma 90.0000
_symmetry_Int_Tables_number 11
_chemical_formula_structural TiO2
_chemical_formula_sum 'Ti6 O12'
_cell_volume 193.5890
_cell_formula_units_Z 6
loop_
 _symmetry_equiv_pos_site_id
 _symmetry_equiv_pos_as_xyz
  1 'x, -y-1/2, z'
  2 '-x, y+1/2, -z'
  3 '-x, -y, -z'
  4 'x, y, z'
loop_
 _atom_site_type_symbol
 _atom_site_label
 _atom_site_symmetry_multiplicity
 _atom_site_fract_x
 _atom_site_fract_y
 _atom_site_fract_z
 _atom_site_occupancy
 Ti Ti0 2 0.0000 0.0000 0.0000 1.0
 Ti Ti1 2 0.5000 0.0000 0.5000 1.0
 Ti Ti2 2 0.0056 0.2500 0.4580 1.0
 O O3 4 0.1811 0.5688 0.3228 1.0
 O O4 4 0.3135 0.5685 0.8226 1.0
 O O5 2 0.1082 0.2500 0.0936 1.0
 O O6 2 0.4035 0.2500 0.5548 1.0
