
data_Ti9O18
_symmetry_space_group_name_H-M R-3
_cell_length_a 11.0821
_cell_length_b 11.0821
_cell_length_c 2.9089
_cell_angle_alpha 90.0000
_cell_angle_beta 90.0000
_cell_angle_gamma 120.0000
_symmetry_Int_Tables_number 148
_chemical_formula_structural TiO2
_chemical_formula_sum 'Ti9 O18'
_cell_volume 309.8596
_cell_formula_units_Z 9
loop_
 _symmetry_equiv_pos_site_id
 _symmetry_equiv_pos_as_xyz
  1 'y+2/3, -x+y+1/3, -z+1/3'
  2 'x-y+2/3, x+1/3, -z+1/3'
  3 'x+1/3, y+2/3, z+2/3'
  4 '-x, -y, -z'
  5 'y, -x+y, -z'
  6 '-y, x-y, z'
  7 '-x+y, -x, z'
  8 'x, y, z'
  9 'x-y, x, -z'
  10 'x+2/3, y+1/3, z+1/3'
  11 '-y+2/3, x-y+1/3, z+1/3'
  12 '-x+y+2/3, -x+1/3, z+1/3'
  13 '-x+2/3, -y+1/3, -z+1/3'
  14 '-y+1/3, x-y+2/3, z+2/3'
  15 '-x+y+1/3, -x+2/3, z+2/3'
  16 '-x+1/3, -y+2/3, -z+2/3'
  17 'y+1/3, -x+y+2/3, -z+2/3'
  18 'x-y+1/3, x+2/3, -z+2/3'
loop_
 _atom_site_type_symbol
 _atom_site_label
 _atom_site_symmetry_multiplicity
 _atom_site_fract_x
 _atom_site_fract_y
 _atom_site_fract_z
 _atom_site_occupancy
 Ti Ti0 9 0.0000 0.5000 0.5000 1.0
 O O1 18 0.0945 0.4519 0.0048 1.0
